-------------------------------------------------------
          Amber 18 SANDER                              2018
          -------------------------------------------------------

  [-O]verwriting output

File Assignments:

 Here is the input file:

Production
 &cntrl
  imin=0,
  ntx=5,
  irest=1,
  nstlim=30000,
  dt=0.002,
  ntf=2,
  ntc=2,
  temp0=300.0,
  ntpr=100,
  ntwx=100,
  cut=8.0,
  ntb=2,
  ntp=1,
  ntt=3,
  gamma_ln=2.0,
  ig=-1,
 /

--------------------------------------------------------------------------------
   1.  RESOURCE   USE:
--------------------------------------------------------------------------------

 getting box info from netcdf restart file
 NATOM  =    1912 NTYPES =       9 NBONH =    1902 MBONA  =       9
 NTHETH =      25 MTHETA =      11 NPHIH =      43 MPHIA  =      24
 NHPARM =       0 NPARM  =       0 NNB   =    2619 NRES   =     633
 NBONA  =       9 NTHETA =      11 NPHIA =      24 NUMBND =      13
 NUMANG =      21 NPTRA  =      20 NATYP =      10 NPHB   =       1
 IFBOX  =       1 NMXRS  =      10 IFCAP =       0 NEXTRA =       0
 NCOPY  =       0

     BOX TYPE: RECTILINEAR
Note: ig = -1. Setting random seed to   374166 based on wallclock time in microseconds.

--------------------------------------------------------------------------------
   2.  CONTROL  DATA  FOR  THE  RUN
--------------------------------------------------------------------------------

ACE

General flags:
     imin    =       0, nmropt  =       0

Nature and format of input:
     ntx     =       5, irest   =       1, ntrx    =       1

Nature and format of output:
     ntxo    =       2, ntpr    =     100, ntrx    =       1, ntwr    =   30000
     iwrap   =       0, ntwx    =     100, ntwv    =       0, ntwe    =       0
     ioutfm  =       1, ntwprt  =       0, idecomp =       0, rbornstat=      0

Potential function:
     ntf     =       2, ntb     =       2, igb     =       0, nsnb    =      25
     ipol    =       0, gbsa    =       0, iesp    =       0
     dielc   =   1.00000, cut     =   8.00000, intdiel =   1.00000

Frozen or restrained atoms:
     ibelly  =       0, ntr     =       0

Molecular dynamics:
     nstlim  =     30000, nscm    =      1000, nrespa  =         1
     t       =   0.00000, dt      =   0.00200, vlimit  =  20.00000

Langevin dynamics temperature regulation:
     ig      =  374166
     temp0   = 300.00000, tempi   =   0.00000, gamma_ln=   2.00000

Pressure regulation:
     ntp     =       1
     pres0   =   1.00000, comp    =  44.60000, taup    =   1.00000

SHAKE:
     ntc     =       2, jfastw  =       0
     tol     =   0.00001

Ewald parameters:
     verbose =       0, ew_type =       0, nbflag  =       1, use_pme =       1
     vdwmeth =       1, eedmeth =       1, netfrc  =       1
     Box X =   31.398   Box Y =   34.100   Box Z =   29.273
     Alpha =   90.000   Beta  =   90.000   Gamma =   90.000
     NFFT1 =   32       NFFT2 =   36       NFFT3 =   30
     Cutoff=    8.000   Tol   =0.100E-04
     Ewald Coefficient =  0.34864
     Interpolation order =    4

--------------------------------------------------------------------------------
   3.  ATOMIC COORDINATES AND VELOCITIES
--------------------------------------------------------------------------------

ACE
 begin time read from input coords =    20.000 ps

 Number of triangulated 3-point waters found:      630

     Sum of charges from parm topology file =  -0.00000000
     Forcing neutrality...

--------------------------------------------------------------------------------
   4.  RESULTS
 NSTEP =      100   TIME(PS) =      20.200  TEMP(K) =   300.49  PRESS =  -150.9
 Etot   =     -4606.6841  EKtot   =      1144.7066  EPtot      =     -5751.3907
 BOND   =         3.4746  ANGLE   =         7.1966  DIHED      =        11.6356
 1-4 NB =         2.8593  1-4 EEL =        46.0620  VDWAALS    =       923.2321
 EELEC  =     -6745.8509  EHBOND  =         0.0000  RESTRAINT  =         0.0000
 EKCMT  =       575.0537  VIRIAL  =       676.7837  VOLUME     =     31221.6374
                                                    Density    =         0.6113
 Ewald error estimate:   0.1717E-04
 ------------------------------------------------------------------------------

      A V E R A G E S   O V E R   30000 S T E P S

 NSTEP =    30000   TIME(PS) =      80.000  TEMP(K) =   300.99  PRESS =  -175.7
 Etot   =     -4816.9825  EKtot   =      1146.5963  EPtot      =     -5963.5788
 BOND   =         3.3192  ANGLE   =         9.1491  DIHED      =        11.6167
 1-4 NB =         3.2252  1-4 EEL =        46.9078  VDWAALS    =       881.9682
 EELEC  =     -6919.7650  EHBOND  =         0.0000  RESTRAINT  =         0.0000
 EKCMT  =       566.7132  VIRIAL  =       661.5124  VOLUME     =     21553.9641
                                                    Density    =         0.9047
 Ewald error estimate:   0.2096E-03
 ------------------------------------------------------------------------------

      R M S  F L U C T U A T I O N S

 NSTEP =    30000   TIME(PS) =      80.000  TEMP(K) =     6.80  PRESS =   427.6
 Etot   =       116.5112  EKtot   =        25.9186  EPtot      =       114.7231
 BOND   =         1.5586  ANGLE   =         2.4843  DIHED      =         1.2460
 1-4 NB =         0.7773  1-4 EEL =         2.2657  VDWAALS    =        34.8073
 EELEC  =       128.7683  EHBOND  =         0.0000  RESTRAINT  =         0.0000
 EKCMT  =        19.0751  VIRIAL  =       205.8022  VOLUME     =      3466.5372
                                                    Density    =         0.1199
 Ewald error estimate:   0.1576E-03
 ------------------------------------------------------------------------------
